
#######################################################################
#
#                 Cambridge Crystallographic Data Centre
#                                CCDC 
#
#######################################################################
#
# If this CIF has been generated from an entry in the Cambridge 
# Structural Database, then it will include bibliographic, chemical, 
# crystal, experimental, refinement or atomic coordinate data resulting 
# from the CCDC's data processing and validation procedures.
#
#######################################################################

data_00000001
_symmetry_cell_setting           hexagonal
_symmetry_space_group_name_H-M   'P 61'
_symmetry_Int_Tables_number      169
_space_group_name_Hall           'P 61'
loop_
_symmetry_equiv_pos_site_id
_symmetry_equiv_pos_as_xyz
1 x,y,z
2 -x+y,-x,2/3+z
3 -y,x-y,1/3+z
4 y,-x+y,5/6+z
5 x-y,x,1/6+z
6 -x,-y,1/2+z
_cell_length_a                   24.1048(18)
_cell_length_b                   24.1048(18)
_cell_length_c                   5.4459(5)
_cell_angle_alpha                90
_cell_angle_beta                 90
_cell_angle_gamma                120
_cell_volume                     2740.36
loop_
_atom_site_label
_atom_site_type_symbol
_atom_site_fract_x
_atom_site_fract_y
_atom_site_fract_z
O23 O 0.30333 0.25106 0.6074
O11 O 0.28335 0.10734 0.5575
O12 O 0.34182 0.15091 0.895333
N13 N 0.22778 0.26319 0.2819
N1 N 0.35621 0.22559 0.323
C14 C 0.2881 0.26765 0.181333
C15 C 0.3359 0.336 0.0895
C16 C 0.3643 0.387 0.2866
C17 C 0.4201 0.3991 0.4135
C18 C 0.4458 0.445 0.5977
C19 C 0.4166 0.4797 0.656333
C20 C 0.3622 0.4694 0.531333
C21 C 0.3358 0.4232 0.3496
C22 C 0.3162 0.2466 0.3872
C2 C 0.3847 0.2035 0.5085
C3 C 0.4366 0.2576 0.6569
C4 C 0.4988 0.3028 0.5286
C5 C 0.5414 0.3607 0.6442
C6 C 0.6022 0.4012 0.5491
C7 C 0.6218 0.3853 0.335333
C8 C 0.5791 0.3294 0.2165
C9 C 0.5186 0.2891 0.3088
C10 C 0.3317 0.1501 0.6645
H24 H 0.1974 0.2234 0.2832
H25 H 0.2164 0.2853 0.1901
H26 H 0.2347 0.2783 0.4306
H27 H 0.3654 0.225 0.169
H28 H 0.2771 0.2383 0.0469
H29 H 0.3702 0.3347 0.0058
H30 H 0.3143 0.3483 -0.0275
H31 H 0.4407 0.3751 0.3722
H32 H 0.4837 0.4525 0.683
H33 H 0.434 0.5112 0.7843
H34 H 0.3426 0.4944 0.5709
H35 H 0.2978 0.4162 0.2664
H36 H 0.4052 0.1841 0.4214
H37 H 0.4466 0.2391 0.7937
H38 H 0.4192 0.2826 0.7218
H39 H 0.5284 0.3727 0.7919
H40 H 0.6307 0.4403 0.6321
H41 H 0.664 0.4124 0.2712
H42 H 0.5918 0.3183 0.0659
H43 H 0.4899 0.2511 0.2201
O1w O 0.124 0.189 0.91871
H1wa H 0.168 0.192 0.93
H1wb H 0.093 0.146 0.9785
O2w O 0.003 0.001 0.89559
H2wa H 0.044 0.007 0.828
H2wb H 0.014 0.047 0.9181
O2w O 0.001 -0.002 0.72892
O2w O 0.002 0.003 1.06226
H2wa H 0.037 0.044 0.994667
H2wb H 0.047 0.033 0.7514
O3w O 0.176 0.122 0.26337
H3wa H 0.18 0.08 0.2723
H3wb H 0.132 0.112 0.2697

#END
